*Nset, nset=top_nod
589145, 589146, 589147, 589148, 589149, 589150, 589151, 589152, 589153, 589154, 589155, 589156, 589157, 589158, 589159, 589160
589161, 589162, 589163, 589164, 589165, 589166, 589167, 589168, 589169, 589170, 589171, 589172, 589173, 589174, 589175, 589176
589177, 589178, 589179, 589180, 589181, 589182, 589183, 589184, 589185, 589186, 589187, 589188, 589189, 589190, 589191, 589192
589193, 589194, 589195, 589196, 589197, 589198, 589199, 589200, 589201, 589202, 589203, 589204, 589205, 589206, 589207, 589208
589209, 589210, 589211, 589212, 589213, 589214, 589215, 589216, 589217, 589218, 589219, 589220, 589221, 589222, 589223, 589224
589225, 589226, 589227, 589228, 589229, 589230, 589231, 589232, 589233, 589234, 589235, 589236, 589237, 589238, 589239, 589240
589241, 589242, 589243, 589244, 589245, 589246, 589247, 589248, 589249, 589250, 589251, 589252, 589253, 589254, 589255, 589256
589257, 589258, 589259, 589260, 589261, 589262, 589263, 589264, 589265, 589266, 589267, 589268, 589269, 589270, 589271, 589272
589273, 589274, 589275, 589276, 589277, 589278, 589279, 589280, 589281, 589282, 589283, 589284, 589285, 589286, 589287, 589288
589289, 589290, 589291, 589292, 589293, 589294, 589295, 589296, 589297, 589298, 589299, 589300, 589301, 589302, 589303, 589304
589305, 589306, 589307, 589308, 589309, 589310, 589311, 589312, 589313, 589314, 589315, 589316, 589317, 589318, 589319, 589320
589321, 589322, 589323, 589324, 589325, 589326, 589327, 589328, 589329, 589330, 589331, 589332, 589333, 589334, 589335, 589336
589337, 589338, 589339, 589340, 589341, 589342, 589343, 589344, 589345, 589346, 589347, 589348, 589349, 589350, 589351, 589352
589353, 589354, 589355, 589356, 589357, 589358, 589359, 589360, 589361, 589362, 589363, 589364, 589365, 589366, 589367, 589368
589369, 589370, 589371, 589372, 589373, 589374, 589375, 589376, 589377, 589378, 589379, 589380, 589381, 589382, 589383, 589384
589385, 589386, 589387, 589388, 589389, 589390, 589391, 589392, 589393, 589394, 589395, 589396, 589397, 589398, 589399, 589400
589401, 589402, 589403, 589404, 589405, 589406, 589407, 589408, 589409, 589410, 589411, 589412, 589413, 589414, 589415, 589416
589417, 589418, 589419, 589420, 589421, 589422, 589423, 589424, 589425, 589426, 589427, 589428, 589429, 589430, 589431, 589432
589433, 589434, 589435, 589436, 589437, 589438, 589439, 589440, 589441, 589442, 589443, 589444, 589445, 589446, 589447, 589448
589449, 589450, 589451, 589452, 589453, 589454, 589455, 589456, 589457, 589458, 589459, 589460, 589461, 589462, 589463, 589464
** ... 226 like lines cut
*Nset, nset=bot_nod
   5356,   5357,   5358,   5359,   5360,   5361,   5362,   5363,   5364,   5365,   5366,   5367,   5368,   5369,   5370,   5371
   5372,   5373,   5374,   5375,   5376,   5377,   5378,   5379,   5380,   5381,   5382,   5383,   5384,   5385,   5386,   5387
   5388,   5389,   5390,   5391,   5392,   5393,   5394,   5395,   5396,   5397,   5398,   5399,   5400,   5402,   5404,   5405
   5406,   5407,   5408,   5409,   5410,   5411,   5412,   5413,   5414,   5415,   5416,   5417,   5418,   5419,   5420,   5421
   5422,   5423,   5424,   5425,   5426,   5427,   5428,   5429,   5430,   5431,   5432,   5433,   5434,   5435,   5436,   5437
   5441,   5442,   5443,   5444,   5445,   5447,   5448,   5449,   5450,   5451,   5452,   5454,   5462,   5464,   5465,   5466
   5467,   5468,   5469,   5472,   5473,   5483,   5485,   5486,   5487,   5489,   5490,   5491,   5492,   5493,   5494,   5495
   5496,   5497,   5498,   5499,   5500,   5512,   5513,   5514,   5515,   5516,   5517,   5518,   5519,   5520,   5521,   5522
   5523,   5524,   5525,   5526,   5527,   5528,   5529,   5530,   5531,   5532,   5533,   5534,   5535,   5536,   5537,   5538
   5539,   5540,   5541,   5542,   5543,   5544,   5545,   5546,   5547,   5548,   5549,   5550,   5551,   5552,   5553,   5555
   5556,   5557,   5558,   5559,   5560,   5561,   5562,   5563,   5564,   5565,   5566,   5567,   5568,   5570,   5571,   5572
   5573,   5575,   5576,   5577,   5580,   5581,   5582,   5583,   5584,   5586,   5589,   5590,   5625,   5631,   5635,   5895
   5896,   5897,   5898,   5899,   5900,   5901,   5902,   5903,   5904,   5905,   5906,   5907,   5908,   5909,   5910,   5911
   5912,   5913,   5914,   5915,   5916,   5917,   5918,   5919,   5920,   5921,   5922,   5923,   5924,   5925,   5926,   5927
   5928,   5929,   5930,   5931,   5932,   5933,   5934,   5935,   5936,   5937,   5938,   5939,   5944,   5951,   6205,   6206
   6207,   6208,   6209,   6210,   6211,   6212,   6213,   6214,   6215,   6216,   6217,   6218,   6219,   6220,   6221,   6222
   6223,   6224,   6225,   6226,   6227,   6228,   6229,   6230,   6231,   6232,   6233,   6234,   6235,   6236,   6237,   6238
   6239,   6240,   6241,   6242,   6243,   6244,   6245,   6246,   6247,   6248,   6249,   6250,   6251,   6252,   6253,   6254
   6255,   6256,   6258,   6259,   6260,   6261,   6262,   6263,   6264,   6265,   6266,   6269,   6270,   6271,   6272,   6273
   6274,   6275,   6276,   6277,   6278,   6282,   6319,   6320,   6321,   6322,   6323,   6324,   6325,   6326,   6327,   6328
** ... 305 like lines cut
** Section: Section-ASSEMBLY_VERT-1_NODESI_ELE_COR
*Solid Section, elset=NODESI_ELE_COR, material=BONE_COR
0.,
** Section: Section-ASSEMBLY_VERT-1_NODESI_ELE_TRA
*Solid Section, elset=NODESI_ELE_TRA, material=BONE_1
0.,
** Section: Section-ASSEMBLY_VERT-1_DESI_ELE_0
*Solid Section, elset=DESI_E_ELE0, material=CAGE_0
0.,
** Section: Section-ASSEMBLY_VERT-1_DESI_ELE_1
*Solid Section, elset=DESI_E_ELE1, material=CAGE_1
0.,
** Section: Section-ASSEMBLY_VERT-1_DESI_ELE_2
*Solid Section, elset=DESI_E_ELE2, material=CAGE_2
0.,
** Section: Section-ASSEMBLY_VERT-1_DESI_ELE_3
*Solid Section, elset=DESI_E_ELE3, material=CAGE_3
0.,
** Section: Section-ASSEMBLY_VERT-1_DESI_ELE_4
*Solid Section, elset=DESI_E_ELE4, material=CAGE_4
0.,
** Section: Section-ASSEMBLY_VERT-1_DESI_ELE_5
*Solid Section, elset=DESI_E_ELE5, material=CAGE_5
0.,
** Section: Section-ASSEMBLY_VERT-1_DESI_ELE_6
*Solid Section, elset=DESI_E_ELE6, material=CAGE_6
0.,
** Section: Section-ASSEMBLY_VERT-1_DESI_ELE_7
*Solid Section, elset=DESI_E_ELE7, material=CAGE_7
0.,
** Section: Section-ASSEMBLY_VERT-1_DESI_ELE_8
*Solid Section, elset=DESI_E_ELE8, material=CAGE_8
0.,
** Section: Section-ASSEMBLY_VERT-1_DESI_ELE_9
*Solid Section, elset=DESI_E_ELE9, material=CAGE_9
0.,
** Section: Section-ASSEMBLY_VERT-1_DESI_ELE_10
*Solid Section, elset=DESI_E_ELE10, material=CAGE_10
0.,
** Section: Section-ASSEMBLY_VERT-1_DESI_ELE_11
*Solid Section, elset=DESI_E_ELE11, material=CAGE_11
0.,
** Section: Section-ASSEMBLY_VERT-1_DESI_ELE_12
*Solid Section, elset=DESI_E_ELE12, material=CAGE_12
0.,
** Section: Section-ASSEMBLY_VERT-1_DESI_ELE_13
*Solid Section, elset=DESI_E_ELE13, material=CAGE_13
0.,
** Section: Section-ASSEMBLY_VERT-1_DESI_ELE_14
*Solid Section, elset=DESI_E_ELE14, material=CAGE_14
0.,
** Section: Section-ASSEMBLY_VERT-1_DESI_ELE_15
*Solid Section, elset=DESI_E_ELE15, material=CAGE_15
0.,
** Section: Section-ASSEMBLY_VERT-1_DESI_ELE_16
*Solid Section, elset=DESI_E_ELE16, material=CAGE_16
0.,
** Section: Section-ASSEMBLY_VERT-1_DESI_ELE_17
*Solid Section, elset=DESI_E_ELE17, material=CAGE_17
0.,
** Section: Section-ASSEMBLY_VERT-1_DESI_ELE_18
*Solid Section, elset=DESI_E_ELE18, material=CAGE_18
0.,
** Section: Section-ASSEMBLY_VERT-1_DESI_ELE_19
*Solid Section, elset=DESI_E_ELE19, material=CAGE_19
** ... 244 like lines cut
** Section: Section-ASSEMBLY_VERT-1_OBJ_ELE_0
*Solid Section, elset=OBJ_E_ELE0, material=BONE_0
0.,
** Section: Section-ASSEMBLY_VERT-1_OBJ_ELE_1
*Solid Section, elset=OBJ_E_ELE1, material=BONE_1
0.,
** Section: Section-ASSEMBLY_VERT-1_OBJ_ELE_2
*Solid Section, elset=OBJ_E_ELE2, material=BONE_2
0.,
** Section: Section-ASSEMBLY_VERT-1_OBJ_ELE_3
*Solid Section, elset=OBJ_E_ELE3, material=BONE_3
0.,
** Section: Section-ASSEMBLY_VERT-1_OBJ_ELE_4
*Solid Section, elset=OBJ_E_ELE4, material=BONE_4
0.,
** Section: Section-ASSEMBLY_VERT-1_OBJ_ELE_5
*Solid Section, elset=OBJ_E_ELE5, material=BONE_5
0.,
** Section: Section-ASSEMBLY_VERT-1_OBJ_ELE_6
*Solid Section, elset=OBJ_E_ELE6, material=BONE_6
0.,
** Section: Section-ASSEMBLY_VERT-1_OBJ_ELE_7
*Solid Section, elset=OBJ_E_ELE7, material=BONE_7
0.,
** Section: Section-ASSEMBLY_VERT-1_OBJ_ELE_8
*Solid Section, elset=OBJ_E_ELE8, material=BONE_8
0.,
** Section: Section-ASSEMBLY_VERT-1_OBJ_ELE_9
*Solid Section, elset=OBJ_E_ELE9, material=BONE_9
0.,
** Section: Section-ASSEMBLY_VERT-1_OBJ_ELE_10
*Solid Section, elset=OBJ_E_ELE10, material=BONE_10
0.,
*End Part
**  
**
** ASSEMBLY
**
*Assembly, name=Assembly
**  
*Instance, name=VERT-1, part=VERT
*End Instance
**  
*Node
      1,          46.200001,19.200001,7.8
      2,          48.599998,18.6,73.800003
*Nset, nset=m_Set-1
 1,
*Nset, nset=m_Set-2
 2,
*Surface, type=NODE, name=VERT-1_BOT_NOD_CNS_, internal
VERT-1.BOT_NOD, 1.
*Surface, type=NODE, name=VERT-1_TOP_NOD_CNS_, internal
VERT-1.TOP_NOD, 1.
** Constraint: Constraint-1
*Coupling, constraint name=Constraint-1, ref node=m_Set-1, surface=VERT-1_BOT_NOD_CNS_
*Kinematic
** Constraint: Constraint-2
*Coupling, constraint name=Constraint-2, ref node=m_Set-2, surface=VERT-1_TOP_NOD_CNS_
*Kinematic
*End Assembly
** 
** MATERIALS
** 
*Material, name=BONE_COR
*Density
 1e-06,
*Elastic
18000., 0.3
*Material, name=CAGE_0
*Density
 1e-06,
*Elastic
110., 0.3
*Material, name=CAGE_1
*Density
1e-06,
*Elastic
1100, 0.3
*Material, name=CAGE_2
*Density
1e-06,
*Elastic
2200, 0.3
*Material, name=CAGE_3
*Density
1e-06,
*Elastic
3300, 0.3
*Material, name=CAGE_4
*Density
1e-06,
*Elastic
4400, 0.3
*Material, name=CAGE_5
*Density
1e-06,
*Elastic
5500, 0.3
*Material, name=CAGE_6
*Density
1e-06,
*Elastic
6600, 0.3
*Material, name=CAGE_7
*Density
1e-06,
*Elastic
7700, 0.3
*Material, name=CAGE_8
*Density
1e-06,
*Elastic
8800, 0.3
*Material, name=CAGE_9
*Density
1e-06,
*Elastic
9900, 0.3
*Material, name=CAGE_10
*Density
1e-06,
*Elastic
11000, 0.3
*Material, name=CAGE_11
*Density
1e-06,
*Elastic
12100, 0.3
*Material, name=CAGE_12
*Density
1e-06,
*Elastic
13200, 0.3
*Material, name=CAGE_13
*Density
1e-06,
*Elastic
14300, 0.3
*Material, name=CAGE_14
*Density
1e-06,
*Elastic
15400, 0.3
*Material, name=CAGE_15
*Density
1e-06,
*Elastic
16500, 0.3
*Material, name=CAGE_16
*Density
1e-06,
*Elastic
17600, 0.3
*Material, name=CAGE_17
*Density
1e-06,
*Elastic
18700, 0.3
*Material, name=CAGE_18
*Density
1e-06,
*Elastic
19800, 0.3
*Material, name=CAGE_19
*Density
1e-06,
*Elastic
20900, 0.3
*Material, name=CAGE_20
*Density
1e-06,
*Elastic
22000, 0.3
*Material, name=CAGE_21
*Density
1e-06,
*Elastic
23100, 0.3
*Material, name=CAGE_22
*Density
1e-06,
*Elastic
24200, 0.3
*Material, name=CAGE_23
*Density
1e-06,
*Elastic
25300, 0.3
*Material, name=CAGE_24
*Density
1e-06,
*Elastic
26400, 0.3
*Material, name=CAGE_25
*Density
1e-06,
*Elastic
27500, 0.3
*Material, name=CAGE_26
*Density
1e-06,
*Elastic
28600, 0.3
*Material, name=CAGE_27
*Density
1e-06,
*Elastic
29700, 0.3
*Material, name=CAGE_28
*Density
1e-06,
*Elastic
30800, 0.3
*Material, name=CAGE_29
*Density
1e-06,
*Elastic
31900, 0.3
*Material, name=CAGE_30
*Density
1e-06,
*Elastic
33000, 0.3
*Material, name=CAGE_31
*Density
1e-06,
*Elastic
34100, 0.3
*Material, name=CAGE_32
*Density
1e-06,
*Elastic
35200, 0.3
*Material, name=CAGE_33
*Density
1e-06,
*Elastic
36300, 0.3
*Material, name=CAGE_34
*Density
1e-06,
*Elastic
37400, 0.3
*Material, name=CAGE_35
*Density
1e-06,
*Elastic
38500, 0.3
*Material, name=CAGE_36
*Density
1e-06,
*Elastic
39600, 0.3
*Material, name=CAGE_37
*Density
1e-06,
*Elastic
40700, 0.3
*Material, name=CAGE_38
*Density
1e-06,
*Elastic
41800, 0.3
*Material, name=CAGE_39
*Density
1e-06,
*Elastic
42900, 0.3
*Material, name=CAGE_40
*Density
1e-06,
*Elastic
44000, 0.3
*Material, name=CAGE_41
*Density
1e-06,
*Elastic
45100, 0.3
*Material, name=CAGE_42
*Density
1e-06,
*Elastic
46200, 0.3
*Material, name=CAGE_43
*Density
1e-06,
*Elastic
47300, 0.3
*Material, name=CAGE_44
*Density
1e-06,
*Elastic
48400, 0.3
*Material, name=CAGE_45
*Density
1e-06,
*Elastic
49500, 0.3
*Material, name=CAGE_46
*Density
1e-06,
*Elastic
50600, 0.3
*Material, name=CAGE_47
*Density
1e-06,
*Elastic
51700, 0.3
*Material, name=CAGE_48
*Density
1e-06,
*Elastic
52800, 0.3
*Material, name=CAGE_49
*Density
1e-06,
*Elastic
53900, 0.3
*Material, name=CAGE_50
*Density
1e-06,
*Elastic
55000, 0.3
*Material, name=CAGE_51
*Density
1e-06,
*Elastic
56100, 0.3
*Material, name=CAGE_52
*Density
1e-06,
*Elastic
57200, 0.3
*Material, name=CAGE_53
*Density
1e-06,
*Elastic
58300, 0.3
*Material, name=CAGE_54
*Density
1e-06,
*Elastic
59400, 0.3
*Material, name=CAGE_55
*Density
1e-06,
*Elastic
60500, 0.3
*Material, name=CAGE_56
*Density
1e-06,
*Elastic
61600, 0.3
*Material, name=CAGE_57
*Density
1e-06,
*Elastic
62700, 0.3
*Material, name=CAGE_58
*Density
1e-06,
*Elastic
63800, 0.3
*Material, name=CAGE_59
*Density
1e-06,
*Elastic
64900, 0.3
*Material, name=CAGE_60
*Density
1e-06,
*Elastic
66000, 0.3
*Material, name=CAGE_61
*Density
1e-06,
*Elastic
67100, 0.3
*Material, name=CAGE_62
*Density
1e-06,
*Elastic
68200, 0.3
*Material, name=CAGE_63
*Density
1e-06,
*Elastic
69300, 0.3
*Material, name=CAGE_64
*Density
1e-06,
*Elastic
70400, 0.3
*Material, name=CAGE_65
*Density
1e-06,
*Elastic
71500, 0.3
*Material, name=CAGE_66
*Density
1e-06,
*Elastic
72600, 0.3
*Material, name=CAGE_67
*Density
1e-06,
*Elastic
73700, 0.3
*Material, name=CAGE_68
*Density
1e-06,
*Elastic
74800, 0.3
*Material, name=CAGE_69
*Density
1e-06,
*Elastic
75900, 0.3
*Material, name=CAGE_70
*Density
1e-06,
*Elastic
77000, 0.3
*Material, name=CAGE_71
*Density
1e-06,
*Elastic
78100, 0.3
*Material, name=CAGE_72
*Density
1e-06,
*Elastic
79200, 0.3
*Material, name=CAGE_73
*Density
1e-06,
*Elastic
80300, 0.3
*Material, name=CAGE_74
*Density
1e-06,
*Elastic
81400, 0.3
*Material, name=CAGE_75
*Density
1e-06,
*Elastic
82500, 0.3
*Material, name=CAGE_76
*Density
1e-06,
*Elastic
83600, 0.3
*Material, name=CAGE_77
*Density
1e-06,
*Elastic
84700, 0.3
*Material, name=CAGE_78
*Density
1e-06,
*Elastic
85800, 0.3
*Material, name=CAGE_79
*Density
1e-06,
*Elastic
86900, 0.3
*Material, name=CAGE_80
*Density
1e-06,
*Elastic
88000, 0.3
*Material, name=CAGE_81
*Density
1e-06,
*Elastic
89100, 0.3
*Material, name=CAGE_82
*Density
1e-06,
*Elastic
90200, 0.3
*Material, name=CAGE_83
*Density
1e-06,
*Elastic
91300, 0.3
*Material, name=CAGE_84
*Density
1e-06,
*Elastic
92400, 0.3
*Material, name=CAGE_85
*Density
1e-06,
*Elastic
93500, 0.3
*Material, name=CAGE_86
*Density
1e-06,
*Elastic
94600, 0.3
*Material, name=CAGE_87
*Density
1e-06,
*Elastic
95700, 0.3
*Material, name=CAGE_88
*Density
1e-06,
*Elastic
96800, 0.3
*Material, name=CAGE_89
*Density
1e-06,
*Elastic
97900, 0.3
*Material, name=CAGE_90
*Density
1e-06,
*Elastic
99000, 0.3
*Material, name=CAGE_91
*Density
1e-06,
*Elastic
100100, 0.3
*Material, name=CAGE_92
*Density
1e-06,
*Elastic
101200, 0.3
*Material, name=CAGE_93
*Density
1e-06,
*Elastic
102300, 0.3
*Material, name=CAGE_94
*Density
1e-06,
*Elastic
103400, 0.3
*Material, name=CAGE_95
*Density
1e-06,
*Elastic
104500, 0.3
*Material, name=CAGE_96
*Density
1e-06,
*Elastic
105600, 0.3
*Material, name=CAGE_97
*Density
1e-06,
*Elastic
106700, 0.3
*Material, name=CAGE_98
*Density
1e-06,
*Elastic
107800, 0.3
*Material, name=CAGE_99
*Density
1e-06,
*Elastic
108900, 0.3
*Material, name=CAGE_100
*Density
1e-06,
*Elastic
110000, 0.3
*Material, name=BONE_0
*Density
 1e-06,
*Elastic
12., 0.3
*Material, name=BONE_1
*Density
 1e-06,
*Elastic
1200., 0.3
*Material, name=BONE_2
*Density
 1e-06,
*Elastic
2400., 0.3
*Material, name=BONE_3
*Density
 1e-06,
*Elastic
3600., 0.3
*Material, name=BONE_4
*Density
 1e-06,
*Elastic
4800., 0.3
*Material, name=BONE_5
*Density
 1e-06,
*Elastic
6000., 0.3
*Material, name=BONE_6
*Density
 1e-06,
*Elastic
7200., 0.3
*Material, name=BONE_7
*Density
 1e-06,
*Elastic
8400., 0.3
*Material, name=BONE_8
*Density
 1e-06,
*Elastic
9600., 0.3
*Material, name=BONE_9
*Density
 1e-06,
*Elastic
10800., 0.3
*Material, name=BONE_10
*Density
 1e-06,
*Elastic
12000., 0.3
** 
** BOUNDARY CONDITIONS
** 
** Name: Disp-BC-1 Type: Displacement
*Boundary
M_SET-1, ENCASTRE
** ----------------------------------------------------------------
** 
** STEP: Load
** 
*Step, name=Load, nlgeom=NO, solver=ITERATIVE
*Static
1., 1., 1e-05, 1.
** 
** LOADS
** 
** Name: CFORCE-2   Type: Moment
*Cload, op=NEW
M_SET-2, 4, -7500.
** 
** OUTPUT REQUESTS
** 
*Restart, write, number interval=1, time marks=NO
** 
** FIELD OUTPUT: F-Output-2
** 
*Output, field
*Element Output, elset=VERT-1.ALLE, directions=NO
ENER, E, S,
** 
** FIELD OUTPUT: F-Output-1
** 
*Node Output, nset=VERT-1.ALLN
U, 
** 
** HISTORY OUTPUT: H-Output-1
** 
*Output, history, variable=PRESELECT
*End Step